/*--------------------------------*- C++ -*----------------------------------*\
| =========                 |                                                 |
| \\      /  F ield         | OpenFOAM: The Open Source CFD Toolbox           |
|  \\    /   O peration     | Version:  plus                                  |
|   \\  /    A nd           | Web:      www.OpenFOAM.com                      |
|    \\/     M anipulation  |                                                 |
\*---------------------------------------------------------------------------*/
FoamFile
{
    version     2.0;
    format      ascii;
    class       volScalarField;
    object      omega;
}
// * * * * * * * * * * * * * * * * * * * * * * * * * * * * * * * * * * * * * //


dimensions      [0 0 -1 0 0 0 0];

internalField   uniform 1;

boundaryField
{


    outlet
    {
        type            inletOutlet;
        inletValue      $internalField;
        value           $internalField;
    }

    inlet
    {
        type            inletOutlet;
        inletValue      $internalField;
        value           $internalField;
    }

    symmetry
    {
        type            symmetry;
    }

    frontAndBackPlanes
    {
        type            empty;
    }

    fire
    {
        type            omegaWallFunction;
        value           uniform 1;
    }

    
}


// ************************************************************************* //
